! LDA zora-def2-tzvp nori grid5 finalgrid6 verytightscf
%Pal NProcs 18 End

*xyz 0 1
Cr -7.024455 2.159906 2.687477
C -5.745125 2.453969 4.046034
C -5.747986 1.193764 1.686659
C -6.493665 3.759856 1.835371
C -8.300845 3.126754 3.687779
O -9.070901 3.715082 4.291407
O -4.974179 2.632342 4.869002
O -4.977695 0.606824 1.081974
O -6.176347 4.727975 1.320041
C -8.304393 1.866232 1.329334
O -9.076187 1.688738 0.506975
C -7.553951 0.559352 3.539091
O -7.868850 -0.410064 4.053526
*