! LDA def2-svp nori grid5 finalgrid6 verytightscf
%Pal NProcs 18 End

% REL
  Method ZORA
  ModelPot 1, 0, 0, 0
  velit 137.035989
END

*xyz 0 1
P 0.0000000000 0.0000000000 0.0000000000
H 0.0000000000 0.0000000000 1.4141500000
H 1.4127052064 0.0000000000 -0.0639079205
O -0.2628101077 1.6275926322 -0.2511898901
H -0.9542069755 1.7138775927 -0.9120164663
*