!uks pbe nori defgrid3 verytightscf

%pal nprocs 16 end

%scf maxiter 400 end

%basis
  newgto I "sarc-zora-tzvpp" end
  delecp I
  newgto I "sarc-zora-tzvpp" end
  delecp I
end

%rel
  modelpot 1, 0, 0, 0
end



*xyz 0 1
I 0.0000000000 0.0000000000 0.0000000000
I 0.0000000000 0.0000000000 2.6630000000
*
